* SPICE netlist generated by Yosys 0.9 (git sha1 UNKNOWN, clang 9.0.0 -march=x86-64 -mtune=generic -O2 -fno-plt -fPIC -Os)

.include "prim_cells_ngspice.mod"

.SUBCKT pwm clk rst compare.0 compare.1 compare.2 compare.3 compare.4 compare.5 compare.6 compare.7 hs ls
X0 rst 1 NOT
X1 compare.0 2 NOT
X2 compare.1 3 NOT
X3 compare.2 4 NOT
X4 compare.3 5 NOT
X5 compare.4 6 NOT
X6 compare.5 7 NOT
X7 compare.6 8 NOT
X8 compare.7 9 NOT
X9 cnt.3 10 NOT
X10 cnt.2 11 NOT
X11 cnt.4 12 NOT
X12 cnt.5 13 NOT
X13 cnt.6 14 NOT
X14 cnt.7 15 NOT
X15 compare.7 15 16 NAND
X16 16 17 NOT
X17 compare.6 14 18 NOR
X18 16 18 19 NAND
X19 9 cnt.7 20 NAND
X20 20 21 NOT
X21 rst 21 22 NOR
X22 19 22 23 NAND
X23 2 cnt.0 24 NOR
X24 3 cnt.1 25 NAND
X25 24 25 26 NAND
X26 4 cnt.2 27 NOR
X27 3 cnt.1 28 NOR
X28 27 28 29 NOR
X29 26 29 30 NAND
X30 compare.2 11 31 NOR
X31 compare.3 10 32 NOR
X32 31 32 33 NOR
X33 30 33 34 NAND
X34 6 cnt.4 35 NOR
X35 5 cnt.3 36 NOR
X36 35 36 37 NOR
X37 compare.1 cnt.1 38 NOR
X38 38 39 NOT
X39 compare.1 cnt.1 40 NAND
X40 34 37 41 NAND
X41 compare.5 13 42 NOR
X42 6 cnt.4 43 NAND
X43 41 43 44 NAND
X44 42 44 45 NOR
X45 8 cnt.6 46 NOR
X46 7 cnt.5 47 NOR
X47 46 47 48 NOR
X48 17 18 49 NOR
X49 48 49 50 NAND
X50 45 50 51 NOR
X51 23 51 52 NOR
X52 cnt.4 cnt.5 53 NOR
X53 cnt.0 cnt.1 54 NOR
X54 cnt.6 cnt.7 55 NAND
X55 cnt.3 54 56 NAND
X56 cnt.2 55 57 NOR
X57 53 57 58 NAND
X58 56 58 59 NOR
X59 59 60 NOT
X60 1 60 61 NAND
X61 cnt.0 61 62.0 NOR
X62 cnt.0 cnt.1 63 NAND
X63 63 64 NOT
X64 1 63 65 NAND
X65 54 65 62.1 NOR
X66 cnt.1 cnt.2 66 NAND
X67 66 67 NOT
X68 cnt.2 64 68 NAND
X69 68 69 NOT
X70 cnt.2 64 70 NOR
X71 rst 70 71 NOR
X72 68 71 72 NAND
X73 72 62.2 NOT
X74 10 68 73 NOR
X75 cnt.3 69 74 NAND
X76 10 68 75 NAND
X77 74 75 76 NAND
X78 61 76 62.3 NOR
X79 12 74 77 NOR
X80 cnt.4 73 78 NOR
X81 rst 78 79 NOR
X82 79 80 NOT
X83 77 80 62.4 NOR
X84 cnt.5 77 81 NAND
X85 81 82 NOT
X86 cnt.5 77 83 NOR
X87 rst 83 84 NOR
X88 81 84 85 NAND
X89 85 62.5 NOT
X90 cnt.6 82 86 NAND
X91 86 87 NOT
X92 14 81 88 NAND
X93 86 88 89 NAND
X94 61 89 62.6 NOR
X95 cnt.7 87 90 NAND
X96 15 86 91 NAND
X97 90 91 92 NAND
X98 61 92 62.7 NOR
X99 compare.1 compare.2 93 NAND
X100 93 94 NOT
X101 5 93 95 NOR
X102 compare.3 94 96 NAND
X103 6 96 97 NOR
X104 compare.4 95 98 NAND
X105 7 98 99 NOR
X106 compare.5 97 100 NAND
X107 8 100 101 NOR
X108 compare.6 99 102 NAND
X109 20 101 103 NOR
X110 8 100 104 NAND
X111 102 104 105 NAND
X112 cnt.6 105 106 NOR
X113 compare.1 compare.2 107 NOR
X114 107 108 NOT
X115 94 107 109 NOR
X116 93 108 110 NAND
X117 cnt.2 110 111 NAND
X118 2 cnt.0 112 NAND
X119 40 112 113 NAND
X120 39 113 114 NAND
X121 111 114 115 NAND
X122 5 93 116 NAND
X123 96 116 117 NAND
X124 cnt.3 117 118 NOR
X125 11 109 119 NAND
X126 115 119 120 NAND
X127 118 120 121 NOR
X128 compare.4 95 122 NOR
X129 6 96 123 NAND
X130 97 122 124 NOR
X131 98 123 125 NAND
X132 cnt.4 125 126 NAND
X133 cnt.3 117 127 NAND
X134 126 127 128 NAND
X135 121 128 129 NOR
X136 compare.5 97 130 NOR
X137 7 98 131 NAND
X138 99 130 132 NOR
X139 100 131 133 NAND
X140 13 132 134 NAND
X141 12 124 135 NAND
X142 134 135 136 NAND
X143 129 136 137 NOR
X144 cnt.6 105 138 NAND
X145 cnt.5 133 139 NAND
X146 138 139 140 NAND
X147 137 140 141 NOR
X148 106 141 142 NOR
X149 103 142 143 NOR
X150 20 101 144 NAND
X151 10 53 145 NAND
X152 67 145 146 NOR
X153 55 146 147 NOR
X154 1 16 148 NAND
X155 147 148 149 NOR
X156 144 149 150 NAND
X157 143 150 151 NOR
X158 clk 151 ls DFF
X159 clk 62.0 cnt.0 DFF
X160 clk 62.1 cnt.1 DFF
X161 clk 62.2 cnt.2 DFF
X162 clk 62.3 cnt.3 DFF
X163 clk 62.4 cnt.4 DFF
X164 clk 62.5 cnt.5 DFF
X165 clk 62.6 cnt.6 DFF
X166 clk 62.7 cnt.7 DFF
X167 clk 52 hs DFF
.ENDS pwm

************************
* end of SPICE netlist *
************************

