* SPICE netlist generated by Yosys 0.9 (git sha1 UNKNOWN, clang 9.0.0 -march=x86-64 -mtune=generic -O2 -fno-plt -fPIC -Os)

.include "prim_cells_ngspice.mod"

.SUBCKT pwm clk rst compare.0 compare.1 compare.2 compare.3 compare.4 compare.5 compare.6 compare.7 compare.8 compare.9 compare.10 compare.11 compare.12 compare.13 compare.14 compare.15 hs ls
X0 rst 1 NOT
X1 compare.3 2 NOT
X2 compare.4 3 NOT
X3 compare.5 4 NOT
X4 compare.6 5 NOT
X5 compare.7 6 NOT
X6 compare.8 7 NOT
X7 compare.9 8 NOT
X8 compare.10 9 NOT
X9 compare.11 10 NOT
X10 compare.12 11 NOT
X11 compare.13 12 NOT
X12 compare.14 13 NOT
X13 compare.15 14 NOT
X14 cnt.3 15 NOT
X15 cnt.4 16 NOT
X16 cnt.5 17 NOT
X17 cnt.6 18 NOT
X18 cnt.7 19 NOT
X19 cnt.8 20 NOT
X20 cnt.9 21 NOT
X21 cnt.0 22 NOT
X22 cnt.1 23 NOT
X23 cnt.2 24 NOT
X24 cnt.10 25 NOT
X25 cnt.11 26 NOT
X26 cnt.12 27 NOT
X27 cnt.13 28 NOT
X28 cnt.14 29 NOT
X29 cnt.15 30 NOT
X30 compare.14 29 31 NOR
X31 compare.15 30 32 NAND
X32 32 33 NOT
X33 31 32 34 NAND
X34 14 cnt.15 35 NAND
X35 35 36 NOT
X36 rst 36 37 NOR
X37 34 37 38 NAND
X38 11 cnt.12 39 NAND
X39 12 cnt.13 40 NAND
X40 39 40 41 NAND
X41 10 cnt.11 42 NAND
X42 compare.11 26 43 NAND
X43 compare.10 25 44 NOR
X44 9 cnt.10 45 NAND
X45 43 44 46 NAND
X46 42 46 47 NAND
X47 8 cnt.9 48 NAND
X48 7 cnt.8 49 NAND
X49 48 49 50 NAND
X50 2 cnt.3 51 NAND
X51 compare.2 24 52 NAND
X52 compare.1 cnt.1 53 NOR
X53 compare.1 cnt.1 54 NAND
X54 54 55 NOT
X55 53 55 56 NOR
X56 56 57 NOT
X57 compare.0 22 58 NAND
X58 57 58 59 NAND
X59 compare.2 24 60 NOR
X60 compare.1 23 61 NOR
X61 60 61 62 NOR
X62 59 62 63 NAND
X63 52 63 64 NAND
X64 51 64 65 NAND
X65 3 cnt.4 66 NOR
X66 compare.3 15 67 NAND
X67 65 67 68 NAND
X68 66 68 69 NOR
X69 4 cnt.5 70 NAND
X70 3 cnt.4 71 NAND
X71 70 71 72 NAND
X72 69 72 73 NOR
X73 4 cnt.5 74 NOR
X74 5 cnt.6 75 NOR
X75 74 75 76 NOR
X76 compare.6 18 77 NOR
X77 6 cnt.7 78 NOR
X78 compare.7 19 79 NAND
X79 77 78 80 NOR
X80 76 80 81 NAND
X81 73 81 82 NOR
X82 6 cnt.7 83 NAND
X83 77 79 84 NAND
X84 83 84 85 NAND
X85 82 85 86 NOR
X86 7 cnt.8 87 NOR
X87 86 87 88 NOR
X88 50 88 89 NOR
X89 42 43 90 NAND
X90 compare.9 21 91 NAND
X91 compare.10 25 92 NAND
X92 45 92 93 NAND
X93 90 93 94 NOR
X94 91 94 95 NAND
X95 89 95 96 NOR
X96 47 96 97 NOR
X97 11 cnt.12 98 NOR
X98 97 98 99 NOR
X99 41 99 100 NOR
X100 31 36 101 NOR
X101 12 cnt.13 102 NOR
X102 compare.14 29 103 NAND
X103 32 103 104 NAND
X104 102 104 105 NOR
X105 101 105 106 NAND
X106 100 106 107 NOR
X107 38 107 108 NOR
X108 cnt.12 cnt.13 109 NOR
X109 cnt.14 cnt.15 110 NOR
X110 109 110 111 NAND
X111 cnt.8 cnt.9 112 NOR
X112 cnt.10 cnt.11 113 NOR
X113 112 113 114 NAND
X114 111 114 115 NOR
X115 cnt.0 cnt.1 116 NOR
X116 cnt.3 116 117 NAND
X117 cnt.2 117 118 NOR
X118 cnt.4 cnt.5 119 NOR
X119 cnt.6 cnt.7 120 NAND
X120 115 118 121 NAND
X121 120 121 122 NOR
X122 119 122 123 NAND
X123 1 123 124 NAND
X124 cnt.0 124 125.0 NOR
X125 cnt.0 cnt.1 126 NAND
X126 126 127 NOT
X127 1 126 128 NAND
X128 116 128 125.1 NOR
X129 cnt.1 cnt.2 129 NAND
X130 129 130 NOT
X131 cnt.2 127 131 NAND
X132 131 132 NOT
X133 cnt.2 127 133 NOR
X134 rst 133 134 NOR
X135 131 134 135 NAND
X136 135 125.2 NOT
X137 15 131 136 NOR
X138 cnt.3 132 137 NAND
X139 15 131 138 NAND
X140 137 138 139 NAND
X141 124 139 125.3 NOR
X142 16 137 140 NOR
X143 cnt.4 136 141 NOR
X144 rst 141 142 NOR
X145 142 143 NOT
X146 140 143 125.4 NOR
X147 cnt.5 140 144 NAND
X148 cnt.5 140 145 NOR
X149 rst 145 146 NOR
X150 144 146 147 NAND
X151 147 125.5 NOT
X152 18 144 148 NOR
X153 148 149 NOT
X154 18 144 150 NAND
X155 149 150 151 NAND
X156 124 151 125.6 NOR
X157 cnt.7 148 152 NOR
X158 120 144 153 NOR
X159 cnt.7 148 154 NAND
X160 152 153 155 NOR
X161 155 156 NOT
X162 124 156 125.7 NOR
X163 20 154 157 NOR
X164 cnt.8 153 158 NAND
X165 cnt.8 153 159 NOR
X166 rst 159 160 NOR
X167 158 160 161 NAND
X168 161 125.8 NOT
X169 21 158 162 NOR
X170 cnt.9 157 163 NAND
X171 cnt.9 157 164 NOR
X172 rst 164 165 NOR
X173 163 165 166 NAND
X174 166 125.9 NOT
X175 25 163 167 NOR
X176 cnt.10 162 168 NAND
X177 cnt.10 162 169 NOR
X178 rst 169 170 NOR
X179 168 170 171 NAND
X180 171 125.10 NOT
X181 26 168 172 NOR
X182 cnt.11 167 173 NAND
X183 cnt.11 167 174 NOR
X184 rst 174 175 NOR
X185 173 175 176 NAND
X186 176 125.11 NOT
X187 cnt.12 172 177 NAND
X188 cnt.12 172 178 NOR
X189 rst 178 179 NOR
X190 177 179 180 NAND
X191 180 125.12 NOT
X192 28 177 181 NOR
X193 28 177 182 NAND
X194 1 182 183 NAND
X195 181 183 125.13 NOR
X196 cnt.14 181 184 NAND
X197 cnt.14 181 185 NOR
X198 rst 185 186 NOR
X199 184 186 187 NAND
X200 187 125.14 NOT
X201 30 184 188 NOR
X202 30 184 189 NAND
X203 1 189 190 NAND
X204 188 190 125.15 NOR
X205 compare.1 compare.2 191 NAND
X206 191 192 NOT
X207 2 191 193 NOR
X208 compare.3 192 194 NAND
X209 3 194 195 NOR
X210 compare.4 193 196 NAND
X211 4 196 197 NOR
X212 compare.5 195 198 NAND
X213 5 198 199 NOR
X214 compare.6 197 200 NAND
X215 6 200 201 NOR
X216 compare.7 199 202 NAND
X217 7 202 203 NOR
X218 compare.8 201 204 NAND
X219 8 204 205 NOR
X220 compare.9 203 206 NAND
X221 9 206 207 NOR
X222 compare.10 205 208 NAND
X223 10 208 209 NOR
X224 compare.11 207 210 NAND
X225 10 208 211 NAND
X226 210 211 212 NAND
X227 cnt.11 212 213 NOR
X228 213 214 NOT
X229 compare.10 205 215 NOR
X230 9 206 216 NAND
X231 207 215 217 NOR
X232 208 216 218 NAND
X233 25 217 219 NOR
X234 cnt.10 218 220 NOR
X235 219 220 221 NOR
X236 cnt.11 212 222 NAND
X237 222 223 NOT
X238 221 222 224 NAND
X239 213 223 225 NOR
X240 213 224 226 NOR
X241 221 225 227 NAND
X242 compare.7 199 228 NOR
X243 6 200 229 NAND
X244 201 228 230 NOR
X245 202 229 231 NAND
X246 cnt.7 231 232 NOR
X247 19 230 233 NAND
X248 cnt.7 231 234 NAND
X249 5 198 235 NAND
X250 200 235 236 NAND
X251 236 237 NOT
X252 cnt.6 236 238 NAND
X253 234 238 239 NAND
X254 compare.4 193 240 NOR
X255 195 240 241 NOR
X256 241 242 NOT
X257 16 241 243 NOR
X258 compare.5 195 244 NOR
X259 197 244 245 NOR
X260 17 245 246 NOR
X261 243 246 247 NOR
X262 17 245 248 NAND
X263 18 237 249 NAND
X264 248 249 250 NAND
X265 250 251 NOT
X266 247 250 252 NOR
X267 239 252 253 NOR
X268 233 249 254 NAND
X269 239 254 255 NOR
X270 232 253 256 NOR
X271 cnt.4 242 257 NOR
X272 16 241 258 NAND
X273 247 258 259 NAND
X274 232 259 260 NOR
X275 251 260 261 NAND
X276 247 248 262 NAND
X277 257 262 263 NOR
X278 239 261 264 NOR
X279 255 263 265 NAND
X280 compare.1 compare.2 266 NOR
X281 266 267 NOT
X282 191 267 268 NAND
X283 cnt.2 268 269 NAND
X284 compare.3 192 270 NOR
X285 2 191 271 NAND
X286 193 270 272 NOR
X287 194 271 273 NAND
X288 cnt.3 273 274 NAND
X289 269 274 275 NAND
X290 15 272 276 NAND
X291 cnt.2 268 277 NOR
X292 275 277 278 NOR
X293 276 278 279 NAND
X294 56 58 280 NAND
X295 57 279 281 NOR
X296 279 280 282 NOR
X297 58 281 283 NAND
X298 275 276 284 NAND
X299 54 279 285 NOR
X300 285 286 NOT
X301 284 286 287 NAND
X302 282 287 288 NOR
X303 265 288 289 NOR
X304 256 289 290 NOR
X305 compare.8 201 291 NOR
X306 203 291 292 NOR
X307 292 293 NOT
X308 20 292 294 NOR
X309 8 204 295 NAND
X310 206 295 296 NAND
X311 cnt.9 296 297 NAND
X312 297 298 NOT
X313 294 298 299 NOR
X314 cnt.8 293 300 NOR
X315 cnt.9 296 301 NOR
X316 300 301 302 NOR
X317 299 302 303 NAND
X318 290 303 304 NOR
X319 299 301 305 NOR
X320 304 305 306 NOR
X321 227 306 307 NOR
X322 214 219 308 NAND
X323 222 308 309 NAND
X324 307 309 310 NOR
X325 11 210 311 NOR
X326 compare.12 209 312 NAND
X327 compare.12 209 313 NOR
X328 11 210 314 NAND
X329 311 313 315 NOR
X330 312 314 316 NAND
X331 27 315 317 NAND
X332 compare.0 22 318 NOR
X333 283 318 319 NOR
X334 264 319 320 NAND
X335 303 320 321 NOR
X336 226 321 322 NAND
X337 317 322 323 NAND
X338 310 323 324 NOR
X339 12 312 325 NOR
X340 compare.13 311 326 NAND
X341 compare.13 311 327 NOR
X342 12 312 328 NAND
X343 325 327 329 NOR
X344 326 328 330 NAND
X345 cnt.13 330 331 NAND
X346 cnt.12 316 332 NAND
X347 331 332 333 NAND
X348 324 333 334 NOR
X349 13 326 335 NOR
X350 compare.14 325 336 NAND
X351 compare.14 325 337 NOR
X352 13 326 338 NAND
X353 335 337 339 NOR
X354 336 338 340 NAND
X355 29 339 341 NAND
X356 28 329 342 NAND
X357 341 342 343 NAND
X358 334 343 344 NOR
X359 cnt.14 340 345 NAND
X360 compare.15 336 346 NOR
X361 14 335 347 NOR
X362 346 347 348 NOR
X363 cnt.15 348 349 NAND
X364 345 349 350 NAND
X365 344 350 351 NOR
X366 35 335 352 NAND
X367 15 119 353 NAND
X368 130 353 354 NOR
X369 120 354 355 NOR
X370 rst 33 356 NOR
X371 115 356 357 NAND
X372 355 357 358 NOR
X373 352 358 359 NAND
X374 351 359 360 NOR
X375 clk 360 ls DFF
X376 clk 125.0 cnt.0 DFF
X377 clk 125.1 cnt.1 DFF
X378 clk 125.2 cnt.2 DFF
X379 clk 125.3 cnt.3 DFF
X380 clk 125.4 cnt.4 DFF
X381 clk 125.5 cnt.5 DFF
X382 clk 125.6 cnt.6 DFF
X383 clk 125.7 cnt.7 DFF
X384 clk 125.8 cnt.8 DFF
X385 clk 125.9 cnt.9 DFF
X386 clk 125.10 cnt.10 DFF
X387 clk 125.11 cnt.11 DFF
X388 clk 125.12 cnt.12 DFF
X389 clk 125.13 cnt.13 DFF
X390 clk 125.14 cnt.14 DFF
X391 clk 125.15 cnt.15 DFF
X392 clk 108 hs DFF
.ENDS pwm

************************
* end of SPICE netlist *
************************

